external_data/resilience_validation/external_snapshots/pre_event/Master.dss
! Generated by hacdcpf OpenDSS text exporter.
! Balanced three-phase AC snapshot; dynamic controls are exported only as steady PQ/source equivalents.
Clear
Set DefaultBaseFrequency=50
New Circuit.resilience_pre_event bus1=bus_1_xref_1.1.2.3 basekv=10 pu=1 angle=0 phases=3

New Line.Primary_Feeder bus1=bus_1_xref_1.1.2.3 bus2=bus_2_xref_2.1.2.3 phases=3 r1=0.0125 x1=0.125 r0=0.0125 x0=0.125 length=8 units=km
New Line.Feeder_Section bus1=bus_2_xref_2.1.2.3 bus2=bus_3_xref_3.1.2.3 phases=3 r1=0.0142857142857143 x1=0.142857142857143 r0=0.0142857142857143 x0=0.142857142857143 length=7 units=km
New Line.Hospital_lateral bus1=bus_2_xref_2.1.2.3 bus2=bus_4_xref_4.1.2.3 phases=3 r1=0.0166666666666667 x1=0.0888888888888889 r0=0.0166666666666667 x0=0.0888888888888889 length=9 units=km
New Load.BusDemand1 bus1=bus_2_xref_2.1.2.3 phases=3 kv=10 kw=1000 kvar=200 model=1
New Load.BusDemand2 bus1=bus_3_xref_3.1.2.3 phases=3 kv=10 kw=1000 kvar=200 model=1
New Load.BusDemand3 bus1=bus_4_xref_4.1.2.3 phases=3 kv=10 kw=600 kvar=120 model=1

Set VoltageBases=[10]
CalcVoltageBases

Solve
